
**** 02/27/22 11:56:48 ******* PSpice 17.4.0 (Nov 2018) ******* ID# 0 ********

 ** Profile: "SCHEMATIC1-bandpass"  [ D:\Git\ishero\circuit_simulation\pspiceTI\bandpass-filter-PSpiceFiles\SCHEMATIC1\bandpass.sim ]


 ****     CIRCUIT DESCRIPTION


******************************************************************************




** Creating circuit file "bandpass.cir" 
** WARNING: THIS AUTOMATICALLY GENERATED FILE MAY BE OVERWRITTEN BY SUBSEQUENT SIMULATIONS

*Libraries: 
* Profile Libraries :
* Local Libraries :
* From [PSPICE NETLIST] section of C:\cds_spb_home\cdssetup\OrCAD_PSpiceTIPSpice_Install\17.4.0\PSpice.ini file:
.lib "nom_pspti.lib" 
.lib "nom.lib" 

*Analysis directives: 
.AC DEC 100 1 100Meg
.OPTIONS ADVCONV
.OPTIONS FILEMODELSEARCH
.PROBE64 V(alias(*)) I(alias(*)) W(alias(*)) D(alias(*)) NOISE(alias(*)) 
.INC "..\SCHEMATIC1.net" 



**** INCLUDING SCHEMATIC1.net ****
* source BANDPASS-FILTER
C_C1         IN N00191  0.047u  TC=0,0 
C_C2         0 OUT  150p  TC=0,0 
R_R1         N00191 OUT  10k TC=0,0 
R_R2         0 N00191  10k TC=0,0 
V_V1         IN 0  AC 0.1
+SIN 0 1 0 0 0 0

**** RESUMING bandpass.cir ****
.END

**** 02/27/22 11:56:48 ******* PSpice 17.4.0 (Nov 2018) ******* ID# 0 ********

 ** Profile: "SCHEMATIC1-bandpass"  [ D:\Git\ishero\circuit_simulation\pspiceTI\bandpass-filter-PSpiceFiles\SCHEMATIC1\bandpass.sim ]


 ****     SMALL SIGNAL BIAS SOLUTION       TEMPERATURE =   27.000 DEG C


******************************************************************************



 NODE   VOLTAGE     NODE   VOLTAGE     NODE   VOLTAGE     NODE   VOLTAGE


(   IN)    0.0000  (  OUT)    0.0000  (N00191)    0.0000 




    VOLTAGE SOURCE CURRENTS
    NAME         CURRENT

    V_V1         0.000E+00

    TOTAL POWER DISSIPATION   0.00E+00  WATTS



          JOB CONCLUDED

**** 02/27/22 11:56:48 ******* PSpice 17.4.0 (Nov 2018) ******* ID# 0 ********

 ** Profile: "SCHEMATIC1-bandpass"  [ D:\Git\ishero\circuit_simulation\pspiceTI\bandpass-filter-PSpiceFiles\SCHEMATIC1\bandpass.sim ]


 ****     JOB STATISTICS SUMMARY


******************************************************************************



  License check-out time            =         .53
  Total job time (using Solver 1)   =         .48
